76
Coordinates from ORCA-job optimization
  C   -1.12835354264060     -1.39444971085808     -0.24919898877792
  C   -1.67801916906027     -2.21076475214537     -1.17649430837221
  H   -2.61870153108570     -2.73376197734588     -1.22212764294193
  O   -0.84436943292397     -2.38458907706579     -2.23414393636267
  C   0.27393415032395     -1.66016591382562     -1.97231644385131
  H   1.05664851141430     -1.70261497964085     -2.71118559378489
  C   0.16760253704218     -1.03762230098626     -0.77916425760065
  C   1.15523846007273     -0.13469198312870     -0.10423812212417
  O   2.46714934481567     -0.32835577519894     -0.58889318501314
  Si  3.55985732274775     -1.47601599255176     -0.08772300101814
  C   5.24540953509388     -0.74187543219961     -0.53892358350111
  C   5.45376897688320      0.58012935256815      0.20917453561633
  H   4.67957871154203      1.30833854198884     -0.04303919098863
  H   6.42319100397705      1.01720163113221     -0.05609945526568
  H   5.44127960005676      0.44160382856786      1.29367104980004
  C   5.30158327995964     -0.47494492587818     -2.04871734296463
  H   5.17928612042783     -1.39308828038966     -2.62923914192713
  H   4.52311852166006      0.22543389004267     -2.36120396678214
  H   6.27040381692860     -0.04005678291128     -2.32007818116154
  C   6.36207567252001     -1.72115316757682     -0.15564370168504
  H   6.36658209345920     -1.93505901091721      0.91664545357597
  H   7.33995595369191     -1.29658609819073     -0.40938775512571
  H   6.27025093221681     -2.67219810976188     -0.68666669780442
  C   3.28064934444482     -3.09981653077642     -0.97267514865191
  H   2.29558464330324     -3.50213721689976     -0.72655718954042
  H   3.33439656503690     -2.98351935130260     -2.05713637190741
  H   4.03066661619852     -3.83549337579616     -0.67118130261334
  C   3.39086736570888     -1.77151029324759      1.75260224655887
  H   3.54963380536693     -0.86291608480104      2.33660755643550
  H   2.39924638222244     -2.16263506681389      1.99432257434391
  H   4.12331030702004     -2.51441178656817      2.07801281631382
  H   1.13963099962600     -0.39110335084302      0.96013505798052
  C   0.72045931646595      1.35123605691300     -0.24538014881707
  H   -0.33119495268957      1.32605450778780     -0.54485647783428
  C   1.45233338208301      2.05298952093001     -1.39059769905020
  H   1.39950831839608      1.40388110926212     -2.26989823125955
  H   2.51526836744783      2.15446179182873     -1.16237549263623
  C   0.86316650147283      3.41438106920263     -1.74188061039438
  H   1.00340846883015      4.14078259675209     -0.93886217368195
  H   1.33721017430459      3.82200616763627     -2.63698199262617
  H   -0.21045544334683      3.33944905080755     -1.93662745145940
  C   0.75353666957006      2.10411527378657      1.09799403731388
  H   0.42888787296375      3.13055217375086      0.89935215294968
  C   2.15196189948633      2.17463420344939      1.71395446721044
  H   2.85106423518842      2.52093049157918      0.94823034496086
  H   2.48352730663229      1.16844100558000      1.99077055608512
  C   2.26185636518953      3.09544089747175      2.92363373147111
  H   3.29858353111356      3.17410579389273      3.25701501993278
  H   1.91255367238991      4.10246267496785      2.67983990632050
  H   1.67319416949354      2.73547164967969      3.76955164249782
  C   -0.27812374849892      1.51462166773316      2.08146298805165
  H   0.02092561894241      0.51370462770857      2.38797218698099
  H   -0.29639461753152      2.12870198329985      2.98344189921642
  C   -1.68691714671844      1.57289134620375      1.51635491150774
  O   -2.15821684774690      2.75532273687709      1.48291039695109
  C   -2.35640820519530      0.42595408558321      1.06064535905634
  C   -3.68380508833363      0.53393777953333      0.52255015373906
  O   -4.34875869558605      1.57510663505018      0.37319387200917
  O   -4.20975239119910     -0.64698451507350      0.16756449717135
  C   -5.53515734960465     -0.79010093817067     -0.42296489666973
  C   -5.65350551721802     -2.29506474947728     -0.62643261304977
  H   -5.53836940085276     -2.82097091297343      0.32275223733678
  H   -4.89097030677282     -2.65236474902146     -1.31958866955500
  H   -6.63315050716689     -2.53617264524529     -1.04119675912614
  C   -6.61422768211472     -0.31548171545963      0.54311241997916
  H   -7.59200367099115     -0.60786889242897      0.15575681328112
  H   -6.59692592909055      0.76409613951722      0.66888039353597
  H   -6.47975602227624     -0.78834865976824      1.51805598009575
  C   -5.59727764723403     -0.07763952586556     -1.76821225155697
  H   -4.76678799375421     -0.39884798572470     -2.40032946849416
  H   -6.52984588736204     -0.34135821430802     -2.27062321986878
  H   -5.55657082804178      1.00289307597535     -1.65308779798273
  C   -1.72742040788994     -0.96046268308657      1.06504840024270
  H   -2.47996270606854     -1.69458696932167      1.35200651590574
  H   -0.95618350596365     -1.02021901585425      1.83206466856030
  Li  -3.74742060697279      3.22012915624082      0.82645426814012
