81
Coordinates from ORCA-job optimization
  C   -1.81556088533677      2.04983588823526     -3.71885609037613
  C   -0.93778662293206      1.24354862978308     -2.76814019278310
  C   -0.90997270732955      1.75911240635560     -1.31498821368275
  C   -1.09479007974257      0.55644174377899     -0.36073225746447
  O   -2.44023452497755      0.14480165632935     -0.49932981163428
  Si  -3.04564637122365     -1.40580551056861     -0.43843391724949
  C   -3.40342872519592     -1.85785173068181      1.33797598595390
  C   -4.63785660193921     -1.33138867837945     -1.45934792677193
  C   -5.53001838339053     -0.19325058264617     -0.94787630182598
  C   -5.39283907615676     -2.66103587918635     -1.33426057507090
  C   -4.30171053711623     -1.07769646407676     -2.93385998976719
  C   -1.80106309240135     -2.58998779203012     -1.17389517730085
  C   -0.77408048417322      0.84145532717110      1.08530167365176
  C   -1.42554982655694      1.68956534815666      1.90503069456402
  O   -0.83743871390956      1.71945448995384      3.14215153123899
  C   0.19904278574251      0.87157985921872      3.11246210250052
  C   0.30662576902943      0.29102673393257      1.88213845253664
  C   1.30645317340579     -0.66600717794125      1.52583486262863
  C   3.24511148173418      0.83546479871151      0.76958639534625
  C   3.89683274244003      1.06757175088997      2.10636572645387
  C   3.73449157595805     -0.30067275049222      0.00818406155453
  O   3.32520045081096     -0.33790699869742     -1.27207234275043
  C   3.46086421537461     -1.51308993788216     -2.12202003441534
  C   2.73611863598121     -1.09092579519112     -3.39399520246785
  C   4.92728641798487     -1.79571347411871     -2.42043226181360
  C   2.75357386930174     -2.70777300865990     -1.49419603403245
  O   4.45048078623370     -1.17282096857742      0.48515911206447
  C   0.31756818411122      2.62161983065756     -0.97758481340735
  C   0.44654324284926      3.88723413634913     -1.83058518245534
  C   -0.68066831292835      4.89602651417393     -1.64747560585741
  C   1.61437462730373      1.80048462259310     -0.99758715456928
  C   2.38952194213442      1.86358437022621      0.30907582246528
  O   2.20402416397000      2.87258092828689      1.03576054164554
  H   -1.84147618691754      1.58868881151575     -4.70859060859992
  H   -2.84231825220415      2.09879474887763     -3.34600622886482
  H   -1.45951667428334      3.07362062051450     -3.84109840355701
  H   0.08376604418898      1.19834239772133     -3.15888478518312
  H   -1.30154204513011      0.21275052949057     -2.76995446428300
  H   -1.80083012587001      2.37488752596191     -1.14650184572705
  H   -0.43027485284805     -0.25114402510452     -0.69119596782072
  H   -3.77752608767205     -2.88115728230584      1.42055268894924
  H   -4.14509810423054     -1.18516997685635      1.77480390958821
  H   -2.48731493733096     -1.78908427415026      1.92931289615180
  H   -5.80879110472944     -0.33320509871462      0.09996298996961
  H   -6.45624570682244     -0.14820473165337     -1.53211785676427
  H   -5.03267036521668      0.77557197476631     -1.03631082465118
  H   -4.79103017159359     -3.50604824485401     -1.68038086732886
  H   -6.30391075685575     -2.63585926176452     -1.94268570118277
  H   -5.69222747709911     -2.86319006740700     -0.30269316254577
  H   -3.74644936508492     -0.14546677503434     -3.06528027709559
  H   -3.70283702677657     -1.88690168179189     -3.35952492111146
  H   -5.22198518102617     -1.00179941764195     -3.52416452094184
  H   -1.49240784507821     -2.28082408356950     -2.17515088207307
  H   -2.22853273489811     -3.59334077924580     -1.24430595353017
  H   -0.91062473203101     -2.65493048737115     -0.54363042639425
  H   -2.28716772311738      2.32473748914158      1.77973764105634
  H   0.75258350089627      0.74049671128592      4.02973755036980
  H   1.35530261171234     -1.06053319757025      0.52634997146828
  H   2.10637524332072     -0.88844836235792      2.20760928971423
  H   4.43837847374648      0.18017046452888      2.42821261997317
  H   3.15307062775021      1.31567413597131      2.86973266083694
  H   4.59954777062641      1.90622142668442      2.07732949797965
  H   2.76706847171727     -1.89922807980355     -4.12600941901319
  H   3.20825088456553     -0.20840098731485     -3.82940364019123
  H   1.69181149606078     -0.85607887192039     -3.17852935469114
  H   5.45329574195038     -2.15094859790636     -1.53727972988848
  H   4.99507490697323     -2.55610995247502     -3.20077202574521
  H   5.41722971381707     -0.89007240456545     -2.78365633999233
  H   1.70552892561876     -2.46708612135786     -1.29858344355695
  H   2.77941120599122     -3.54792195176485     -2.19033427538489
  H   3.22818560116793     -3.01275713229285     -0.56359054575076
  H   0.17730370912414      2.96949510619919      0.04687989966678
  H   0.54536378686464      3.61734008839563     -2.88739393902699
  H   1.39264016743198      4.36476622376247     -1.55679795649296
  H   -0.77663770305780      5.19109326591051     -0.59833320871018
  H   -1.64719217756526      4.49880534208700     -1.96163454749793
  H   -0.49254468420939      5.80110564831516     -2.22832479503042
  H   1.42440819286711      0.76427825692826     -1.25772761398125
  H   2.28656488409171      2.15978294237270     -1.78409963859642
  K   1.24702491620709      4.41492574119448      2.67385925456746
  Br  0.37298011600322     -2.91518384760528      2.21633034880645
