81
Coordinates from ORCA-job optimization
  C   0.85816253719532     -1.63696256800202      0.43466163220702
  C   1.01581209502631     -2.95889793123066      0.68210017759802
  H   0.34348671073031     -3.72096625152713      1.04012604262358
  O   2.28498819011018     -3.35262875903573      0.41514701946974
  C   2.95723191006871     -2.25531002844277     -0.00841191637154
  H   4.00074895909634     -2.39332371502233     -0.23770045020511
  C   2.14613351110492     -1.17356232877553     -0.02091030391829
  C   2.52346380224480      0.22760424292372     -0.40999157031952
  O   3.87229380843239      0.48782791832930     -0.06298049771290
  Si  4.34851255913113      1.10723349305180      1.40850433626771
  C   6.21825890411786      0.82937031823988      1.45442481025974
  C   6.80097522754172      1.43727504537687      2.73647614291958
  H   6.63670355756440      2.51684050318939      2.78644747535678
  H   7.88270764890243      1.26764958841099      2.77658425025842
  H   6.36586123345639      0.99053936820966      3.63457026974579
  C   6.87178228625096      1.49417235581707      0.23635465848079
  H   7.95504662149481      1.32913942698884      0.25128956975584
  H   6.48460856630505      1.08503558546386     -0.69976574010107
  H   6.70408009625886      2.57431464198306      0.22422544761303
  C   6.51636593604139     -0.67500867417249      1.42671733023176
  H   7.59828148003207     -0.84745498975078      1.44760874216174
  H   6.12135835065962     -1.14374865804056      0.52242818630445
  H   6.08377007716417     -1.19048556788400      2.28792588145561
  C   3.46693280075165      0.22534108433962      2.80340615855825
  H   3.78636551419491      0.62239138804399      3.77006429379670
  H   2.38641162306978      0.37122591515423      2.72450421875174
  H   3.66005762730614     -0.84868583378003      2.79055584356525
  C   3.91029919426708      2.92515655900928      1.47237888298691
  H   4.39313234842717      3.48000565111598      0.66502661750925
  H   2.82996136953928      3.06070647784605      1.37500157430126
  H   4.21588393877169      3.36845888456333      2.42306462416469
  H   1.86827987001457      0.91804959556841      0.13904996740450
  C   2.38172678642452      0.51751175630983     -1.91420979683447
  H   3.19773605271393     -0.05247823129031     -2.37135239801530
  C   2.61189925030075      2.01582968137901     -2.19759330274637
  H   2.76926227988368      2.54241275102834     -1.25319573677741
  H   1.71072962280610      2.45391108888545     -2.63565819370122
  C   3.79768738836935      2.29082501682250     -3.11436192840006
  H   3.93313004656364      3.36186200923732     -3.27868635601502
  H   4.71957801986347      1.89680794457017     -2.67974089264352
  H   3.66246675394881      1.81786754807674     -4.09026680252203
  C   1.07419060583752     -0.02311566133918     -2.51123831708825
  H   1.01948122810226     -1.08117685357055     -2.23434930244340
  C   1.05299335611228      0.02369265540785     -4.04227851005121
  H   1.19637879004856      1.05674888070203     -4.37693450605067
  H   0.05005498498213     -0.26251361687689     -4.36992864890427
  C   2.07353757830927     -0.88968472581330     -4.70931400303126
  H   1.95892724912370     -0.86973468970388     -5.79467915827690
  H   3.10032939992860     -0.59608898300484     -4.48369048914316
  H   1.94561677013755     -1.92381473067900     -4.37817041974415
  C   -0.18285186532501      0.68370374306863     -1.93552948858043
  H   0.04505221588883      1.19488001444846     -1.00275946483742
  H   -0.54204048108523      1.43670156509361     -2.63824198171315
  C   -1.28850713174347     -0.32534171987685     -1.74881498480650
  O   -2.02940897604854     -0.52297042816950     -2.74004654671753
  C   -1.43892198623603     -0.98784161070245     -0.48524934550051
  C   -2.31201984254785     -2.14944194521781     -0.38566407552752
  O   -3.12083930491911     -2.53149343796307     -1.24037687183929
  O   -2.19836937898777     -2.77109997274230      0.77954157659949
  C   -3.09632882831425     -3.83655713589312      1.23542232409256
  C   -2.57911246149803     -4.11311502718326      2.63982287938463
  H   -3.17659160501744     -4.89696881392710      3.10642137775232
  H   -2.64259965331339     -3.21365206819394      3.25411949933624
  H   -1.53907568867710     -4.44148493653679      2.60936809910379
  C   -4.52747066221401     -3.32100123150872      1.29058549521903
  H   -5.15004705401650     -4.05810588584171      1.80008715770522
  H   -4.93522109398191     -3.15059804023958      0.29659814943918
  H   -4.57139025402272     -2.38887668807556      1.85753702817159
  C   -2.94362308296289     -5.06935906884366      0.35653985951222
  H   -3.34529447871286     -4.90521374290869     -0.64065007941842
  H   -1.89061078028663     -5.34570818223002      0.27460862836530
  H   -3.47827677343273     -5.90166657769011      0.81735819835485
  C   -0.39449596731423     -0.82064844299852      0.61045438907363
  H   -0.85138363351546     -1.08417152173959      1.56267785515153
  H   -0.12247334167652      0.23019991525462      0.70417891082856
  C   -2.99667093340092      0.44628884739304      0.26556803753098
  H   -3.65840132307403      0.19155349088722     -0.54305627380075
  H   -2.30741642413836      1.26574454942831      0.16040336042422
  H   -3.00435191359293     -0.12291759879240      1.17850493768278
  I   -4.80996855515930      2.04906273339712      1.24840239127445
  Li  -3.31355701770273     -1.79094004079866     -2.89956100589210
