81
Coordinates from ORCA-job optimization
  C   2.84579052958707     -1.65219508319033      0.88311236837597
  C   1.47035556011645     -1.97018596152497      0.37214210035339
  C   0.31152323072774     -2.13840133820262      1.39161901516314
  C   -0.10392497611681     -0.91523768099513      2.23605350143609
  C   0.86256202338826      0.19056959094345      2.49258068033780
  C   0.85148836338695      1.17115417055495      1.29017194428986
  C   2.23129211854120      1.80033020247145      1.03114306367915
  C   3.13133194333356      0.90600767019802      0.15810340514395
  C   3.56333572501005     -0.40044993770017      0.77295166664942
  C   2.50519157572732     -1.26866992113590     -3.13355293530249
  C   4.96604256396747      0.43655164145199     -2.49850414870474
  C   2.41700309710352      1.78546650166238     -3.68361365909706
  C   2.97780030070854      1.65136183585200     -5.10425261982038
  C   2.81788030784759      3.14635320991757     -3.10150104724335
  C   0.88690721283541      1.69285176685825     -3.72797740063424
  C   2.93095223941503      2.28891719236967      2.30145106575592
  C   4.10345877904067      3.22969099176730      2.04222094615865
  C   -0.25413774185911      2.21639759986112      1.47702363335595
  C   -0.62992631736771      2.94678819383445      0.19355426373248
  C   -0.94323314627490     -2.50047178135609      0.58391304058577
  C   -2.21110584866166     -1.73040897264216     -1.38318721986230
  C   -1.94038271491590     -0.51941392668023     -2.25882038532319
  C   -2.06539945302229     -3.01953592662214     -2.17456796936416
  C   -3.55940345245178     -1.60937187229104     -0.69175934575778
  C   3.71102884469525     -2.51138024674431      1.47113981129352
  C   4.78264784871863     -0.62865575425913      1.31033483567547
  Si  3.09855601091896      0.41129435455123     -2.57428612586381
  O   2.45606158866872      0.68452811710995     -1.06508187586689
  O   -1.22914179656402     -0.89960592560461      2.70328568066255
  O   -1.67703495409769     -3.43009159415910      0.84426457304863
  O   -1.12220349825208     -1.64227728394452     -0.39377506958608
  O   4.88908698495126     -1.90489983569752      1.74951428127595
  H   3.63994655361509     -3.55415921819115      1.73616530289543
  H   5.65256486828694     -0.00349185974275      1.43546517321267
  H   4.04576566366627      1.47687715466913     -0.03297181912073
  H   5.32746531091142     -0.34010880179580     -1.82013555470061
  H   5.38545809639936      0.24011416648911     -3.48798276513643
  H   5.35498001971238      1.39639947935647     -2.15207157584135
  H   2.93033407939976     -2.04654838343873     -2.49399985421460
  H   2.80321935538397     -1.47609710082414     -4.16388966458149
  H   1.41677826683225     -1.34244790516044     -3.07331182498498
  H   2.42087309133481      3.95729714489235     -3.72251527771553
  H   3.90358707330856      3.26713353178958     -3.05676607707887
  H   2.42421341448921      3.27998244978083     -2.09012542603868
  H   0.47278241582236      2.51604875548787     -4.32132211311499
  H   0.54949243744260      0.75755520253328     -4.18156957096937
  H   0.45071848600722      1.75380948652469     -2.72703138963172
  H   2.72184983663550      0.68763519993722     -5.55282959291572
  H   2.56543963846367      2.43412193294529     -5.75091532273335
  H   4.06632744248696      1.75120091501899     -5.12218034974051
  H   2.05821050295446      2.67934525450441      0.40103305895739
  H   3.27618174781552      1.43624650083796      2.89364396521131
  H   2.19440385646099      2.80999105735102      2.91933499170240
  H   4.48878573648217      3.63318623661383      2.98037197308260
  H   3.79882140174213      4.07152187271027      1.41500415714735
  H   4.93238819248069      2.72531865298046      1.54173228556884
  H   0.59369137171748      0.61320424936736      0.38542923923647
  H   0.05158912689662      2.93477358198534      2.24498488198948
  H   -1.14380209489268      1.71498484794241      1.86939365013644
  H   -1.42224007934553      3.67460009797741      0.37681167260785
  H   0.21717587784535      3.48470166755712     -0.23771000963153
  H   -0.99002096011942      2.24131248584812     -0.55945773326571
  H   0.56443030408349      0.70693262255258      3.40575999817627
  H   1.85216023968992     -0.23527503881131      2.64536916127485
  H   -2.25701781675118     -3.89488014484199     -1.55687977860962
  H   -1.06184416998149     -3.09125651191404     -2.59764409840680
  H   -2.78361853021323     -3.01156830925093     -2.99569002624295
  H   -3.56877706121644     -0.75164226780907     -0.01577081064363
  H   -4.33018459118502     -1.44930945685523     -1.44676853829483
  H   -3.81616220446826     -2.51246784690355     -0.14132982754433
  H   -1.99342740673898      0.39769932132567     -1.67039795380698
  H   -2.68122407807596     -0.46566247738913     -3.05692324341654
  H   -0.94871942169490     -0.58884658409142     -2.70689817491084
  H   1.19614663100210     -1.22406034051537     -0.36582255117589
  H   1.51820887241352     -2.92267939948205     -0.16324267069518
  C   0.63131657658233     -3.24448507141220      2.40313092724103
  H   -0.21775479689513     -3.45424284809080      3.05080884920563
  H   1.46988511472687     -2.94662655696873      3.03260346226068
  H   0.89936386709368     -4.16237863518993      1.87953614585846
  Br  -6.12672630070234     -1.49148613047849      2.57965811304555
  K   -3.28764707091101     -2.67610065847531      2.94404793280605
