81
Coordinates from ORCA-job optimization
  C   0.84417108340689     -1.66544440825561      0.44268136705151
  C   0.97166250725775     -2.99311727637670      0.67733633410402
  H   0.28310001777610     -3.74490405569785      1.02596267700065
  O   2.23389490119813     -3.41195392009095      0.41364912582144
  C   2.93231304325908     -2.32595990811988      0.00319964562799
  H   3.97311890741671     -2.48362281364948     -0.22679566865433
  C   2.14475095161660     -1.22728885189341     -0.00199131751195
  C   2.54711347515873      0.16449868652906     -0.39681809770679
  O   3.89701636313475      0.40984616504814     -0.04252881793922
  Si  4.34779489786317      1.07234684519726      1.41846644907301
  C   6.23304478155013      0.94723227326753      1.43073767543218
  C   6.78403358721582      1.60056198597325      2.70470492418024
  H   6.53054150270548      2.66254407212923      2.75946901201968
  H   7.87672612292209      1.52203340509122      2.72674432841422
  H   6.40252324772869      1.11774005472877      3.60852059943488
  C   6.80772737206497      1.66470732808075      0.20294461392272
  H   7.90193533038736      1.60356788412319      0.20721367776975
  H   6.45207622971128      1.21399295105571     -0.72644047102973
  H   6.53762728831272      2.72388460872633      0.18590314603014
  C   6.65480553456734     -0.52685585529307      1.39325226758686
  H   7.74766611502649     -0.60686405272441      1.37667638917498
  H   6.27088069409369     -1.03184201782933      0.50339426089623
  H   6.29835758577669     -1.07434017883893      2.26956916081531
  C   3.56473555989872      0.12349434659319      2.82686514326666
  H   3.86102814330590      0.54701464035310      3.78972150749856
  H   2.47466135319010      0.17745987136309      2.76183624417405
  H   3.84756143793459     -0.93066970981763      2.81096299216850
  C   3.76582857411189      2.84868271362718      1.49741661224428
  H   4.21240255465895      3.45595291223860      0.70728213048230
  H   2.67925719544071      2.90187261230834      1.39010380603594
  H   4.02279801225982      3.29769798245867      2.45985002848039
  H   1.89834182147448      0.86907002046875      0.14148766456505
  C   2.40858226114174      0.43698987277152     -1.90480213963278
  H   3.19278783858341     -0.17695280198055     -2.36136961882949
  C   2.69974183189497      1.91880649399388     -2.21808951286834
  H   2.83685357084350      2.46747408977557     -1.28299229697885
  H   1.83350053321780      2.37453170237761     -2.70537340170987
  C   3.92932079678150      2.12505280325451     -3.09446780095661
  H   4.11056304276207      3.18546776908773     -3.28247859700001
  H   4.81861522739222      1.71036947319308     -2.61420329445447
  H   3.81203272297176      1.62900570868604     -4.06134431648689
  C   1.06975430449005     -0.05622533509928     -2.47499038791132
  H   0.96984432986220     -1.10411233947579     -2.17411008085622
  C   1.02915017381015     -0.04516304773413     -4.00635997781881
  H   1.22248986392036      0.96963407541577     -4.37060083257954
  H   0.00805569467137     -0.28570075497504     -4.31498590546925
  C   1.99022045908572     -1.02827522706183     -4.66352281983959
  H   1.85452337165986     -1.03650947924654     -5.74662494008699
  H   3.03432264528163     -0.77732838538519     -4.46705288594434
  H   1.81883263983655     -2.04419578684484     -4.29747800223768
  C   -0.14494427777765      0.71977655279229     -1.89682868331665
  H   0.11484615446910      1.21904404859057     -0.96569340262589
  H   -0.46533262084855      1.49042380552352     -2.59893020459932
  C   -1.30210451190470     -0.22727047569840     -1.70031011028830
  O   -2.08817977142762     -0.35025660005505     -2.66849799431417
  C   -1.44669835316922     -0.92258452388291     -0.45260785522313
  C   -2.34763973030655     -2.06373525131253     -0.37650100203198
  O   -3.17372976963750     -2.39814622456654     -1.23422905252476
  O   -2.23935941298190     -2.72628516874985      0.76696931688284
  C   -3.13017158940273     -3.82265089680237      1.16135675506821
  C   -2.63343988267160     -4.15819107098508      2.56015662868672
  H   -3.22712375050063     -4.97296136040787      2.97610192465914
  H   -2.72354092961451     -3.29123303067556      3.21642021976154
  H   -1.58809008413270     -4.46980863985380      2.53390077071031
  C   -4.57134705170908     -3.33492744895784      1.21642446887784
  H   -5.18594420038080     -4.10302727217108      1.68871071492268
  H   -4.96994547621684     -3.13321021286628      0.22506608598210
  H   -4.64042246238236     -2.42671378307819      1.81867715258466
  C   -2.94235770982737     -5.01157319885035      0.23015255000093
  H   -3.31859946379627     -4.80386804422345     -0.76893521593829
  H   -1.88525500496039     -5.27638709284096      0.16464845207454
  H   -3.48338880551964     -5.86835904557443      0.63538468441283
  C   -0.38445884705457     -0.81535213032272      0.63413653610032
  H   -0.84301954702208     -1.08073079169867      1.58535884749820
  H   -0.07747760421116      0.22447206360894      0.74491941191245
  C   -2.96292965270099      0.51647945143765      0.36838984215972
  H   -3.63738301520702      0.30061937816509     -0.44105172906503
  H   -2.26156759374515      1.32827110277134      0.28301640793740
  H   -2.97078508727018     -0.08184023003401      1.26250283976797
  I   -4.74421441977563      2.10978984457825      1.42456915342023
  Li  -3.40266678724713     -1.58484557638609     -2.85232316316157
