81
Coordinates from ORCA-job optimization
  C   0.35343087706745      0.12629768299361     -2.22987296325039
  C   0.49503363577026     -0.34527214823123     -3.48971570539096
  H   -0.22076902409933     -0.65082597611174     -4.23620968541290
  O   1.80216679768021     -0.43802136112299     -3.83404384825752
  C   2.51589902567860     -0.02258296167875     -2.76237369941206
  H   3.58778031540486     -0.05888862300972     -2.85834681168661
  C   1.70081258585630      0.33314824385585     -1.74242153795366
  C   2.17191979377499      0.79828073311384     -0.38814124161111
  O   3.52396398695933      0.42154059540084     -0.18838847270556
  Si  4.03178092992795     -1.02068219227507      0.47484430948952
  C   5.77309560408763     -0.67909506967440      1.13144227858681
  C   6.59300628498388      0.04440567618287      0.05560132233801
  H   6.65319816226285     -0.53621161360913     -0.86918444922681
  H   7.61731726779382      0.20990481112546      0.40827197717627
  H   6.16144435982719      1.01734413132097     -0.18865778990969
  C   6.45913247506699     -2.00590309509627      1.48276145838997
  H   6.59593063627200     -2.63709427797934      0.60145115864145
  H   7.45020335256618     -1.81740847592355      1.91016389140994
  H   5.88913437707982     -2.57900295291636      2.21987585654214
  C   5.70218986143493      0.19784873714487      2.38779132704408
  H   5.17199256891031      1.13487819639605      2.19999035136924
  H   6.71213320511418      0.45165439044795      2.72898939829711
  H   5.19566495217944     -0.31380242419015      3.21000420441776
  C   4.06083749373608     -2.37533973118836     -0.81354041202727
  H   4.77067840007228     -2.15654087327335     -1.61440502801038
  H   4.34320422484342     -3.32884056684131     -0.36021349198101
  H   3.07341485283850     -2.49356971302599     -1.26468871609476
  C   2.86368003634029     -1.51769263336285      1.84892886286041
  H   3.26889199658382     -2.37341126088982      2.39476080999592
  H   2.71296378736341     -0.70228281302022      2.56087595666756
  H   1.89141594752731     -1.81413208789505      1.44862717224229
  H   1.56208309539708      0.30907360766409      0.37698071785325
  C   2.09195300561888      2.32344778097755     -0.18853254977300
  H   2.83276099357889      2.71179990962209     -0.89589737030461
  C   2.53981054232399      2.71565927321723      1.23420222764378
  H   2.70076142851468      1.81077773337168      1.82619938655657
  H   1.74121681477194      3.26166127938583      1.74191865333468
  C   3.80887894724759      3.55888892477607      1.25755585997275
  H   4.63630502636653      3.02904269151706      0.77979222022771
  H   3.66537621576738      4.50009837448127      0.72077290280606
  H   4.10764615901240      3.80003374293105      2.28016574572921
  C   0.74291339456896      2.93966134368536     -0.60701387723610
  H   0.51669695439018      2.55673842040483     -1.60367521058959
  C   0.83180699286859      4.46592668763732     -0.74967865430050
  H   1.20966040442138      4.89974654317071      0.18236030745471
  H   -0.18398500196769      4.85419300141074     -0.87116831810756
  C   1.67539012575999      4.93686639262492     -1.92713643936967
  H   1.29443154061765      4.52535295732855     -2.86536911548767
  H   1.65268219065552      6.02524544694963     -2.00721791417128
  H   2.72104736895920      4.63799621303423     -1.83206518121845
  C   -0.44972544499651      2.62543140927002      0.32223722870608
  H   -0.38420719547188      3.24675168851878      1.21648391624684
  H   -1.36143515363639      2.92632640123426     -0.20226570824820
  C   -0.62465993272979      1.20892281394775      0.83235823271659
  O   -0.46950656512679      1.05128175644346      2.06598076282503
  C   -1.00787886710606      0.15980370853037     -0.06503261865802
  C   -0.93762843467552     -1.22403758726398      0.37956454390684
  O   -0.81566219845487     -1.60841337484770      1.54882012682270
  O   -1.06070872166414     -2.08017520689031     -0.62194133041280
  C   -1.09077211289776     -3.53704200725804     -0.45633340692812
  C   0.21806990121802     -4.02973233070423      0.14386591337956
  H   0.31189626137746     -3.75577553784324      1.19213161411558
  H   1.06498074038505     -3.61722861337860     -0.40768762100485
  H   0.25711060913419     -5.11715418066649      0.06252237753082
  C   -2.30650378383644     -3.94101603760826      0.36495980960184
  H   -3.21280412778943     -3.50616309109078     -0.06075955556782
  H   -2.21502295316833     -3.62463012431402      1.40171154560444
  H   -2.40622547899321     -5.02744071696263      0.34032418708554
  C   -1.22701516823801     -4.02220884321686     -1.89197513559262
  H   -1.26650285440529     -5.11186420103016     -1.91110470938742
  H   -2.14068413557086     -3.63104134952171     -2.34186109449183
  H   -0.37399151237632     -3.69441911207299     -2.48852654703625
  C   -0.96845112243563      0.39992009074054     -1.56088983365121
  H   -1.26371774820726      1.43147359762328     -1.75854514497953
  H   -1.72405453864421     -0.21629549452482     -2.04952165869938
  C   -3.20863681743834      0.34555355623548      0.32466628651225
  H   -3.34982206467724     -0.51335199566310     -0.30801106575076
  H   -3.21103205267862      1.32799591092197     -0.11363400324078
  H   -3.05433242377777      0.22372491495267      1.38195520744411
  I   -5.78683512594280      0.48287490735871      0.72185260635638
  Li  -0.49170639015412     -0.51559610847618      2.98386586843709
