81
Coordinates from ORCA-job optimization
  C   0.37255764139152      0.12675462612062     -2.24323896999344
  C   0.51850282688151     -0.34035419996434     -3.50429721449155
  H   -0.19425767170275     -0.64652993582562     -4.25351711406917
  O   1.82687949116719     -0.42605915420697     -3.84646566758157
  C   2.53692179576408     -0.01011720928004     -2.77210528484432
  H   3.60931204909100     -0.04160883603375     -2.86530661571299
  C   1.71807643559385      0.33924875413396     -1.75310972567212
  C   2.18419198451396      0.80234953974633     -0.39635856410852
  O   3.53463302819550      0.42299446590995     -0.19395326213406
  Si  4.02325527956011     -0.99869629686848      0.52392253695162
  C   5.78404826817344     -0.66101433125386      1.12452182183741
  C   6.60803673666211     -0.04413682762671     -0.01275516992720
  H   6.65406969997143     -0.70158455687245     -0.88545466559911
  H   7.63691282585011      0.13393725419164      0.31996470405953
  H   6.19048590133024      0.91202332586980     -0.33587937377040
  C   6.43891904120144     -1.97489879651405      1.56982433460451
  H   6.53693452039191     -2.68140477159507      0.74192824660973
  H   7.44487877608960     -1.78131081138110      1.95859240673593
  H   5.87057231228883     -2.46682648074936      2.36454016353821
  C   5.75221834771967      0.31201455768790      2.30938803368146
  H   5.26429209074074      1.25331172429596      2.04582766588703
  H   6.77212327681169      0.54649210546239      2.63444615556078
  H   5.22272548924230     -0.11087156443633      3.16701213653314
  C   3.98226279022762     -2.40705133040822     -0.70407783319597
  H   4.69099251927896     -2.25209009578410     -1.52054174481871
  H   4.22436892509915     -3.35422185697728     -0.21571978555119
  H   2.98468857456865     -2.49632048954132     -1.13991760134553
  C   2.87535202186983     -1.41018290211001      1.94672426767017
  H   3.29475422291179     -2.22313527826586      2.54464684698193
  H   2.72546244179200     -0.54935714716125      2.60339617476509
  H   1.90270200739307     -1.74378637442115      1.57591925731633
  H   1.57144027256512      0.31167081105287      0.36458799886750
  C   2.10168461488680      2.32685180869828     -0.19414459154976
  H   2.83078526802687      2.72023563599610     -0.91085685077625
  C   2.56399944355596      2.72296324125874      1.22309964845939
  H   2.77677118640928      1.82059641705789      1.80140732808530
  H   1.75509461481788      3.23010805520616      1.75416623382721
  C   3.79852929265833      3.61670879021179      1.22872378087210
  H   4.63254970603673      3.12864692001860      0.71847346133249
  H   3.60485789582254      4.56142412869015      0.71464754669005
  H   4.11643999539151      3.85013304118517      2.24733285169950
  C   0.74359601638683      2.93440950741014     -0.59206237415253
  H   0.51234864058961      2.56457481260611     -1.59265900430224
  C   0.81256715394968      4.46351508069065     -0.71179779075078
  H   1.13759927937298      4.89206552030228      0.24234109143829
  H   -0.20451192724722      4.83315161781968     -0.87485339940489
  C   1.70278840650233      4.96889529478908     -1.84045527548865
  H   1.39992413625661      4.53860875804009     -2.79865361549712
  H   1.63589204616572      6.05503350433384     -1.92634225064201
  H   2.75327767212297      4.71848026815619     -1.68188033765744
  C   -0.43859920307670      2.59216554102379      0.34244283484209
  H   -0.37313351499150      3.20047539258309      1.24563014628284
  H   -1.35749173321418      2.89131818728191     -0.17071307711746
  C   -0.59460814889007      1.16501870803542      0.83178549574695
  O   -0.42116860283766      0.98682504057979      2.06005395868399
  C   -0.97963888464739      0.12694347887031     -0.07732789225684
  C   -0.90622214600438     -1.26326745976931      0.34689419786649
  O   -0.75351275785468     -1.66620833765708      1.50633906863909
  O   -1.06625279096704     -2.10421515645729     -0.66223989041166
  C   -1.12909478572552     -3.56103065851368     -0.51158957130147
  C   0.18630739972776     -4.09180256472558      0.03977685748667
  H   0.33539156015428     -3.80447559393751      1.07800327831258
  H   1.02137365982991     -3.71860673871804     -0.55595437461158
  H   0.18321453269973     -5.18114917901507     -0.02421293083259
  C   -2.32737048636173     -3.94302220348671      0.34526761324692
  H   -3.23430867695891     -3.47515942200690     -0.04288169628649
  H   -2.19184562109687     -3.64642010645330      1.38300486177681
  H   -2.45998822530979     -5.02551534791365      0.30746558886583
  C   -1.32784544226868     -4.02491294680984     -1.94700104971080
  H   -1.39086390167169     -5.11322126457142     -1.97836593355159
  H   -2.24909032048500     -3.61014201035631     -2.35901402805969
  H   -0.49077656293499     -3.70523895663755     -2.57003481256426
  C   -0.94988000650935      0.38767438183599     -1.56995144929151
  H   -1.25122525034534      1.42017481317514     -1.75323683071027
  H   -1.70359799905952     -0.22662246696741     -2.06374702005724
  C   -3.17875475785460      0.29587881523390      0.32655988261129
  H   -3.31457509480915     -0.54647728774941     -0.32894718580479
  H   -3.18578836359132      1.29000885807219     -0.08481806222918
  H   -3.02242373158974      0.14754324098092      1.38028171502016
  I   -5.75857713243120      0.40407157453412      0.72043768007283
  Li  -0.39064081846670     -0.59886313682544      2.94864268157585
