81
Coordinates from ORCA-job optimization
  C   -0.27750785244923     -0.59565431654047     -1.91817864723755
  C   -0.96559603558213      0.18882034743427     -0.96237855345316
  C   -2.09758597371864     -1.69036776962798      0.53418198190009
  C   -0.84521604167585     -1.69325781267665      1.20875923677630
  C   0.17928889454612     -2.73345986007103      0.75184227277547
  C   1.63138264327512     -2.37721240827538      1.09320049100774
  C   2.55276442529654     -2.22108788888461     -0.12934812458869
  C   2.24248093959196     -0.98027131416983     -1.01530120190690
  C   1.08375445063645     -1.10410831442680     -1.98013920597722
  C   3.45378569656790      2.47163290384117     -1.22393046678925
  C   4.91891950306457      0.37060985390677      0.40944073112642
  C   2.73520554958720      2.08745480764133      1.78590299361303
  C   3.81708528046213      3.08435630499038      2.22335204798435
  C   2.53444188668875      1.04446309330325      2.89176666213928
  C   1.41946593093072      2.84250776923592      1.57317953452929
  C   2.74494696059014     -3.50333479136500     -0.94402738339784
  C   3.98214480685011     -3.49195599638374     -1.83813248317466
  C   2.24113961134611     -3.34102571189133      2.11895075278086
  C   1.59776270644565     -3.24439068331572      3.49653120938347
  C   -3.09128176730712     -0.68974468769505      0.83940806211320
  C   -5.34489868884189      0.06823445173000      0.18987878274320
  C   -4.91570817980335      1.44372397925421     -0.30765927687779
  C   -6.34459416520112     -0.54798241120137     -0.78022259361510
  C   -5.94110381522525      0.11694249678405      1.59172594592638
  C   -0.88762112763357     -1.02084867749397     -3.07008028113934
  C   1.15150550066852     -1.75164580739501     -3.16163607535713
  Si  3.28331193697702      1.24881798291685      0.17684589163804
  O   2.07412799391063      0.16598575952458     -0.20576769300418
  O   -0.51651289029436     -0.90679243250463      2.12243207084658
  O   -2.96496443866403      0.27602426050414      1.59227649302917
  O   -4.23105404136906     -0.86638389028073      0.13586061340508
  O   -0.04597878428001     -1.71352821134627     -3.82399669889517
  H   -1.88585457482836     -0.86498517769430     -3.45010177319792
  H   1.94156838494665     -2.27689307831774     -3.67163682849920
  H   3.12622572096180     -0.84783097334933     -1.65073302961267
  H   5.71163253708546      1.10860949862339      0.55559233241721
  H   4.91379352018356     -0.29800542070508      1.27240192724654
  H   5.17812141315724     -0.21743725818005     -0.47471346627562
  H   3.73201958932758      1.94530660962769     -2.14119822598226
  H   4.22961884145381      3.21179776789692     -1.01482944305077
  H   2.51388047078663      2.99581932166764     -1.40907181196420
  H   2.28097902567049      1.54330983267192      3.83587673417799
  H   3.43651640694144      0.45473672203537      3.07326456258975
  H   1.73050687871529      0.34635844629826      2.64404843747220
  H   0.63165232991309      2.17976458051985      1.20170468092172
  H   1.09222371038834      3.30292214982929      2.51501762395844
  H   1.51816274411170      3.64792691169184      0.84265032875073
  H   4.76838254550865      2.58644932298886      2.42709579864002
  H   3.99433886260026      3.85284111357530      1.46648786559414
  H   3.50826663709604      3.59299749492718      3.14334363292005
  H   3.53466108430033     -1.97949360931224      0.29411194990418
  H   1.85271444514292     -3.71497147940243     -1.53979179505691
  H   2.84033139237835     -4.33826729088980     -0.24702221134297
  H   3.95065335503560     -2.70564634259780     -2.59522504242421
  H   4.09249616070039     -4.44333467879827     -2.36203165547486
  H   4.88414480445895     -3.33160709130558     -1.24183035289210
  H   1.60435034816958     -1.40112943678854      1.57484140819677
  H   3.31142761438377     -3.12550326559387      2.21040214559661
  H   2.16440491462761     -4.37261285131233      1.75997831716073
  H   0.52706314393399     -3.45860954717941      3.45606763548551
  H   2.05164896128242     -3.95428863786923      4.19141213309788
  H   1.71534604576432     -2.24096692277564      3.91257204777079
  H   -0.10584503997286     -3.68257001642529      1.22106018613197
  H   0.05909652598272     -2.90456643065949     -0.31809761849047
  H   -7.24284640059888      0.06892063206445     -0.83140769308997
  H   -6.62899700370934     -1.54927770299909     -0.45173113248531
  H   -5.91314558508457     -0.61817209354912     -1.78029027883999
  H   -6.87029319383526      0.68944009567670      1.56667815682862
  H   -6.17264242262792     -0.89281998750834      1.93707189353065
  H   -5.26018820157472      0.58469093580416      2.29891599901043
  H   -4.43089583438227      1.35629685353030     -1.28291171321460
  H   -4.22747080175268      1.92254850949809      0.38513576979952
  H   -5.79805079068878      2.07608169842149     -0.42221590874699
  H   -0.51541197821165      0.46183708063770     -0.02434706898375
  H   -2.01491187195431      0.37143853813909     -1.10949000471307
  C   -2.44912824978546     -2.82182726313408     -0.39899596897501
  H   -2.04640378511822     -2.67938731225945     -1.41161735487654
  H   -3.52673907499149     -2.92350073218488     -0.49729468375790
  H   -2.06189190515110     -3.77613990329866     -0.03913161437905
  Br  -0.72384067954878      2.63901446238556     -1.72663935323311
  K   -1.29349051028284      1.21033372995860      3.26279349915246
